data_kdp1
_audit_creation_date              2025-11-06
_audit_creation_method            'Materials Studio'
_symmetry_space_group_name_H-M    'I-42D'
_symmetry_Int_Tables_number       122
_symmetry_cell_setting            tetragonal
loop_
_symmetry_equiv_pos_as_xyz
  x,y,z
  -x,-y,z
  y,-x,-z
  -y,x,-z
  -x+1/2,y,-z+3/4
  x+1/2,-y,-z+3/4
  -y+1/2,-x,z+3/4
  y+1/2,x,z+3/4
  x+1/2,y+1/2,z+1/2
  -x+1/2,-y+1/2,z+1/2
  y+1/2,-x+1/2,-z+1/2
  -y+1/2,x+1/2,-z+1/2
  -x,y+1/2,-z+1/4
  x,-y+1/2,-z+1/4
  -y,-x+1/2,z+1/4
  y,x+1/2,z+1/4
_cell_length_a                    7.4521
_cell_length_b                    7.4521
_cell_length_c                    6.9740
_cell_angle_alpha                 90.0000
_cell_angle_beta                  90.0000
_cell_angle_gamma                 90.0000
loop_
_atom_site_label
_atom_site_type_symbol
_atom_site_fract_x
_atom_site_fract_y
_atom_site_fract_z
_atom_site_U_iso_or_equiv
_atom_site_adp_type
_atom_site_occupancy
O3     O     0.09014   0.14293   0.87311   0.00000  Uiso   1.00
K0     K     0.00000   0.00000   0.50000   0.00000  Uiso   1.00
P1     P     0.00000   0.00000   0.00000   0.00000  Uiso   1.00
H2     H     0.14053   0.75000   0.12500   0.00000  Uiso   1.00
loop_
_geom_bond_atom_site_label_1
_geom_bond_atom_site_label_2
_geom_bond_distance
_geom_bond_site_symmetry_2
_ccdc_geom_bond_type
O3     P1      1.539   1_556 S
O3     H2      1.191   4_656 S
P1     O3      1.539   1_554 S
P1     O3      1.539   2_554 S
P1     O3      1.539   3_556 S
P1     O3      1.539   4_556 S
H2     O3      1.191   3_566 S
H2     O3      1.191   16_554 S
